[General]
network = EdgeEnv
sim-time-limit = 1000s
cpu-time-limit = 1000s
#debug-on-errors = true
#record-eventlog = true

